LAMMPS (24 Mar 2022)

################################################################################
# LAMMPS input file                                                            #
#                                                                              #
# Prototype run for single point potential                                     #
#                                                                              #
# richard terrett, 2018                                                        #
#                                                                              #
################################################################################

# System init

units      metal
dimension  3
boundary   p p p
atom_style atomic
timestep   0.01

# read data
box tilt large
read_data PureAlN_iter_last_no_ox_lmp.data
Reading data file ...
  triclinic box = (0 0 0) to (3.0377817 2.6307962 4.9132207) with tilt (-1.5188909 -0 0)
  reading atoms ...
  2 atoms

# pair potential

pair_style eam/alloy
pair_coeff * * Mishin-Ni-Al-2009.eam.alloy Al

# reporting

thermo 100

# Single point (0 iteration opt)

min_style cg
minimize 1e-5 1e-5 0 0
  update every 1 steps, delay 0 steps, check yes
Step          Temp          E_pair         E_mol          TotEng         Press
0   0             -6.4834647      0             -6.4834647     -78630.213
Loop time of 1.8e-06 on 1 procs for 0 steps with 2 atoms

Minimization stats:
  Stopping criterion = max iterations
  Energy initial, next-to-last, final =
  Force two-norm initial, final = 2.0657298e-06 2.0657298e-06
  Force max component initial, final = 1.1276069e-06 1.1276069e-06
  Final line search alpha, max atom move = 0 0
  Iterations, force evaluations = 0 0

# Thermalisation

velocity all create 300 1 mom yes rot no

dump   1 all atom 10 generic.dump
fix 1 all nve
run  10000
Step          Temp          E_pair         E_mol          TotEng         Press
0   300           -6.4834647      0             -6.4446867     -77575.353
Averages over the last 51 of 101 rows, steps 5000 to 10000:
Temp E_pair E_mol TotEng Press
146.87 -6.46315 0 -6.44416 -75202.7
Loop time of 0.0741582 on 1 procs for 10000 steps with 2 atoms

write_restart checkpoint.init
System init for write_restart ...
