LAMMPS (24 Mar 2022)

################################################################################
# LAMMPS input file                                                            #
#                                                                              #
# Prototype run for single point potential                                     #
#                                                                              #
# richard terrett, 2018                                                        #
#                                                                              #
################################################################################

# System init

units      metal
dimension  3
boundary   p p p
atom_style atomic
timestep   0.01

# read data
box tilt large
read_data AlN_1_iter_last_no_ox_lmp.data
Reading data file ...
  orthogonal box = (0 0 0) to (16.198 16.198 16.198)
  reading atoms ...
  256 atoms

# pair potential

pair_style eam/alloy
pair_coeff * * Mishin-Ni-Al-2009.eam.alloy Al

# reporting

thermo 100

# Single point (0 iteration opt)

min_style cg
minimize 1e-5 1e-5 0 0
  update every 1 steps, delay 0 steps, check yes
Step          Temp          E_pair         E_mol          TotEng         Press
0   0             -860.11754      0             -860.11754      314.75297
Loop time of 3.344e-06 on 1 procs for 0 steps with 256 atoms

Minimization stats:
  Stopping criterion = max iterations
  Energy initial, next-to-last, final =
  Force two-norm initial, final = 0.71172088 0.71172088
  Force max component initial, final = 0.24962093 0.24962093
  Final line search alpha, max atom move = 0 0
  Iterations, force evaluations = 0 0

# Thermalisation

velocity all create 300 1 mom yes rot no

dump   1 all atom 10 generic.dump
fix 1 all nve
run  10000
Step          Temp          E_pair         E_mol          TotEng         Press
0   300           -860.11754      0             -850.22914      2799.9509
Averages over the last 51 of 101 rows, steps 5000 to 10000:
Temp E_pair E_mol TotEng Press
152.23 -855.045 0 -850.028 4457.71
Loop time of 5.24198 on 1 procs for 10000 steps with 256 atoms

write_restart checkpoint.init
System init for write_restart ...
